# generated using pymatgen
data_Ni2O3
_symmetry_space_group_name_H-M   'P 1'
_cell_length_a   2.68157499
_cell_length_b   2.68157430
_cell_length_c   40.02764893
_cell_angle_alpha   90.00000250
_cell_angle_beta   90.00000250
_cell_angle_gamma   119.99999886
_symmetry_Int_Tables_number   1
_chemical_formula_structural   Ni2O3
_chemical_formula_sum   'Ni8 O12'
_cell_volume   249.27027921
_cell_formula_units_Z   4
loop_
 _symmetry_equiv_pos_site_id
 _symmetry_equiv_pos_as_xyz
  1  'x, y, z'
loop_
 _atom_site_type_symbol
 _atom_site_label
 _atom_site_symmetry_multiplicity
 _atom_site_fract_x
 _atom_site_fract_y
 _atom_site_fract_z
 _atom_site_occupancy
  Ni  Ni0  1  0.00000000  0.00000000  0.13559365  1
  Ni  Ni1  1  0.00000000  0.00000000  0.63559365  1
  Ni  Ni2  1  0.50000000  0.50000000  1.49192405  1
  Ni  Ni3  1  0.00000000  0.50000000  1.49192405  1
  Ni  Ni4  1  0.50000000  0.00000000  0.99192399  1
  Ni  Ni5  1  0.50000000  0.00000000  1.49192405  1
  Ni  Ni6  1  0.50000000  0.50000000  0.99192399  1
  Ni  Ni7  1  0.00000000  0.50000000  0.99192399  1
  O  O8  1  -0.33804250  -0.86032408  1.11615956  1
  O  O9  1  -0.33804250  0.52228159  0.61615956  1
  O  O10  1  0.52228159  -0.33804250  1.11615956  1
  O  O11  1  0.33804250  0.86032408  1.11615956  1
  O  O12  1  -0.52228159  -0.86032408  0.61615956  1
  O  O13  1  0.52228159  0.86032408  0.61615956  1
  O  O14  1  -0.86032408  -0.52228159  1.11615956  1
  O  O15  1  0.33804250  -0.52228159  0.61615956  1
  O  O16  1  0.86032408  0.52228159  1.11615956  1
  O  O17  1  -0.52228159  0.33804250  1.11615956  1
  O  O18  1  -0.86032408  -0.33804250  0.61615956  1
  O  O19  1  0.86032408  0.33804250  0.61615956  1
